Version 4
SHEET 1 1528 736
WIRE 768 -352 672 -352
WIRE -112 -288 -208 -288
WIRE -112 -272 -112 -288
WIRE -32 -80 -224 -80
WIRE 32 -80 -32 -80
WIRE -224 -48 -224 -80
WIRE -32 -32 -32 -80
WIRE 592 32 592 -272
WIRE 880 32 592 32
WIRE 144 96 48 96
WIRE 336 96 336 80
WIRE 336 96 304 96
WIRE 368 96 336 96
WIRE 592 112 592 32
WIRE 144 128 96 128
WIRE 368 128 304 128
WIRE 144 160 112 160
WIRE 352 160 304 160
WIRE 464 160 432 160
WIRE -224 176 -320 176
WIRE 112 192 112 160
WIRE 144 192 112 192
WIRE 464 192 464 160
WIRE 464 192 304 192
WIRE 496 192 496 160
WIRE 496 192 464 192
WIRE 544 192 496 192
WIRE 112 224 112 192
WIRE -320 256 -320 176
WIRE 592 288 592 208
WIRE 592 288 528 288
WIRE 592 384 592 288
FLAG -224 32 0
FLAG 112 224 0
FLAG -112 -192 0
FLAG -32 32 0
FLAG 32 -80 3.3V
FLAG -208 -288 15V
FLAG 368 128 15V
FLAG 48 96 3.3V
FLAG 768 -272 0
FLAG 672 -352 120V
FLAG 592 -272 120V
FLAG 592 384 0
FLAG -320 336 0
FLAG -224 176 in
FLAG 96 128 in
FLAG 528 288 Vee
FLAG 368 96 Vee
FLAG 336 16 15V
FLAG 496 160 Vgs
FLAG 880 32 Vds
SYMBOL 1ED3121MC12H 224 144 R0
SYMATTR InstName U1
SYMBOL voltage -224 -64 R0
WINDOW 123 0 0 Left 0
WINDOW 39 0 0 Left 0
SYMATTR InstName V1
SYMATTR Value 3.3
SYMBOL voltage -112 -288 R0
WINDOW 123 0 0 Left 0
WINDOW 39 0 0 Left 0
SYMATTR InstName V2
SYMATTR Value 15
SYMBOL cap -48 -32 R0
SYMATTR InstName C1
SYMATTR Value 100n
SYMATTR SpiceLine V=20
SYMBOL res 448 144 R90
WINDOW 0 135 54 VBottom 2
WINDOW 3 32 56 VTop 2
SYMATTR InstName R1
SYMATTR Value 2.2
SYMBOL voltage 768 -368 R0
WINDOW 123 0 0 Left 0
WINDOW 39 0 0 Left 0
SYMATTR InstName V3
SYMATTR Value 120
SYMBOL voltage -320 240 R0
WINDOW 123 0 0 Left 0
WINDOW 39 0 0 Left 0
SYMATTR InstName V4
SYMATTR Value PULSE(0 5 .5u 30n 21n 2u 4u 2)
SYMBOL cap 320 16 R0
SYMATTR InstName C2
SYMATTR Value 4.7µ
SYMATTR SpiceLine V=100
SYMBOL nmos 544 112 R0
SYMATTR InstName M1
SYMATTR Value BSZ16DN25NS3
TEXT -352 408 Left 2 !.tran 10u
